LTspice 24.1.5 for Windows
Circuit: C:\Users\Francerso\Documents\Francesco\UNIVERSITA'\UNIMI\Anno II\Labortatorio\Circuits\7_5\Elevatore_di_tensione.net
Start Time: Thu May  8 11:36:56 2025
solver = Normal
Maximum thread count: 12
tnom = 27
temp = 27
method = trap
.OP point found by inspection.
Total elapsed time: 0.163 seconds.

Files loaded:
C:\Users\Francerso\Documents\Francesco\UNIVERSITA'\UNIMI\Anno II\Labortatorio\Circuits\7_5\Elevatore_di_tensione.net
C:\Users\Francerso\AppData\Local\LTspice\lib\sub\1n4002_spice.lib

