LTspice 24.1.5 for Windows
Circuit: C:\Users\Francerso\Documents\Francesco\UNIVERSITA'\UNIMI\Anno II\Labortatorio\Elettronica\27_3\Rc_passo_alto.net
Start Time: Wed Apr  9 18:22:59 2025
solver = Normal
Maximum thread count: 12
tnom = 27
temp = 27
method = trap
.OP point found by inspection.
Total elapsed time: 0.065 seconds.

Files loaded:
C:\Users\Francerso\Documents\Francesco\UNIVERSITA'\UNIMI\Anno II\Labortatorio\Elettronica\27_3\Rc_passo_alto.net

