LTspice 24.1.5 for Windows
Circuit: C:\Users\Francerso\Documents\Francesco\UNIVERSITA'\UNIMI\Anno II\Labortatorio\Circuits\27_3\Rc_passo_basso.net
Start Time: Thu Apr 10 12:20:09 2025
solver = Normal
Maximum thread count: 12
tnom = 27
temp = 27
method = trap
.OP point found by inspection.
Total elapsed time: 0.064 seconds.

Files loaded:
C:\Users\Francerso\Documents\Francesco\UNIVERSITA'\UNIMI\Anno II\Labortatorio\Circuits\27_3\Rc_passo_basso.net

