LTspice 24.1.5 for Windows
Circuit: C:\Users\Francerso\Documents\Francesco\UNIVERSITA'\UNIMI\Anno II\Labortatorio\Circuits\9_4\Amplificatore_invertente.net
Start Time: Thu May  8 12:08:49 2025
solver = Normal
Maximum thread count: 12
tnom = 27
temp = 27
method = trap
Direct Newton iteration for .op point succeeded.
Total elapsed time: 0.080 seconds.

Files loaded:
C:\Users\Francerso\Documents\Francesco\UNIVERSITA'\UNIMI\Anno II\Labortatorio\Circuits\9_4\Amplificatore_invertente.net
C:\Users\Francerso\AppData\Local\LTspice\lib\sub\LM741.lib

