LTspice 24.1.5 for Windows
Circuit: C:\Users\Francerso\Documents\Francesco\UNIVERSITA'\UNIMI\Anno II\Labortatorio\Elettronica\9_4\Integratore RC.net
Start Time: Wed Apr  9 18:38:30 2025
solver = Normal
Maximum thread count: 12
tnom = 27
temp = 27
method = trap
Direct Newton iteration for .op point succeeded.
Total elapsed time: 0.127 seconds.

Files loaded:
C:\Users\Francerso\Documents\Francesco\UNIVERSITA'\UNIMI\Anno II\Labortatorio\Elettronica\9_4\Integratore RC.net
C:\Users\Francerso\AppData\Local\LTspice\lib\sub\LM741.lib

