LTspice 24.1.5 for Windows
Circuit: C:\Users\Francerso\Documents\Francesco\UNIVERSITA'\UNIMI\Anno II\Labortatorio\Circuits\9_4\RLC.net
Start Time: Tue May  6 18:36:45 2025
solver = Normal
Maximum thread count: 12
tnom = 27
temp = 27
method = trap
.OP point found by inspection.
Total elapsed time: 0.061 seconds.

Files loaded:
C:\Users\Francerso\Documents\Francesco\UNIVERSITA'\UNIMI\Anno II\Labortatorio\Circuits\9_4\RLC.net

